<routes>
<vTypeDistribution id = "mixed" >
    <vType minGap = "5.53" accel = "2.82" decel = "3.44" emergencyDecel = "10.78" tau = "1.35" maxSpeed = "8.88" lcAssertive = "0.84" stepping='0.4' guiShape = "truck" id = "HV" length = "2.5" carFollowModel = "IDM"/>
</vTypeDistribution >
	<route id="routeWS" edges="442406713_1 442406713_3 442406713_2 442406713_4 442406711 392862156_1 392862156_2 392862156_3 392862156_4 392862156_5 481006164 376034504 E0 376034499_1 376034499_2 376034498_1 376034498_2 376034498_3"/>
	<route id="routeWE" edges="442406713_1 442406713_3 442406713_2 442406713_4 442406711 392862156_1 392862156_2 392862156_3 392862156_4 392862156_5 481006164 376034504 E0 225946551_5 376034496 216974214_1 -E5 216974214_3 442406712_1 442406712_2 442534392 405036644_1 405036644_4 405036644_3 405036644_2 442534378_1"/> 
	<route id="routeWN" edges="442406713_1 442406713_3 442406713_2 442406713_4 442406711 392862156_1 392862156_2 392862156_3 392862156_4 392862156_5 481006164 376034504 E0 225946551_5 E1 225946551_7 4691810_1 4691810_2 4691810_3 442406701 400517186 216972159 412456386 442406698 401784524"/>

	<route id="routeEN" edges="-405036644_3 -405036644_4 -405036644_1 -442534392 -442406712_2 -442406712_1 -216974214_3 E5 -216974214_1 376034497_1 376034497_2 225946551_7 4691810_1 4691810_2 4691810_3 442406701 400517186 216972159 412456386 442406698"/>
	<route id="routeEW" edges="-405036644_3 -405036644_4 -405036644_1 -442534392 -442406712_2 -442406712_1 -216974214_3 E5 -216974214_1 376034497_1 376034497_2 225946551_7 225946551_2 376034509 481006163  -481006164 -392862156_5 -392862156_4 -392862156_3 -392862156_2 -392862156_1 -442406711 -442406713_4 -442406713_2 -442406713_3 -442406713_1"/>
	<route id="routeES" edges="-405036644_3 -405036644_4 -405036644_1 -442534392 -442406712_2 -442406712_1 -216974214_3 E5 -216974214_1 376034497_1 376034497_2 225946551_7 225946551_2 225946551_3 E0 376034499_1 376034499_2 376034498_1 376034498_2 376034498_3"/>

	<route id="routeNW" edges="400517184_1 400517184_3 400517184_2 442406700 400517185 442406702_1 442406702_2 123456_1 E7 123456_2 E8 123456_3 E4 481006163 -481006164 -392862156_5 -392862156_4  -392862156_3 -392862156_2 -392862156_1 -442406711 -442406713_4 -442406713_2 -442406713_3 -442406713_1"/>
	<route id="routeNS" edges="400517184_1 400517184_3 400517184_2 442406700 400517185 442406702_1 442406702_2 442406702_3 222822932 225946551_3 E0 376034499_1 376034499_2 376034498_1 376034498_2 376034498_3"/>
	<route id="routeNE" edges="400517184_1 400517184_3 400517184_2 442406700 400517185 442406702_1 442406702_2 442406702_3 222822932 225946551_3 E0 225946551_5 376034496 216974214_1 -E5 216974214_3 442406712_1 442406712_2 442534392 405036644_1 405036644_4 405036644_3 405036644_2 442534378_1"/>

	<route id="routeSE" edges="-376034498_3 -376034498_2 -376034498_1 376034500_1 376034500_2 376034496 216974214_1 -E5 216974214_3 442406712_1 442406712_2 442534392 405036644_1 405036644_4 405036644_3 405036644_2 442534378_1"/>
	<route id="routeSN" edges="-376034498_3 -376034498_2 -376034498_1 376034500_1 376034500_2 E1 225946551_7 4691810_1 4691810_2 4691810_3 442406701 400517186 216972159 412456386 442406698 401784524"/>
	<route id="routeSW" edges="-376034498_3 -376034498_2 -376034498_1 376034500_1 376034500_2 E1 225946551_7 225946551_2 376034509 481006163 -481006164 -392862156_5 -392862156_4 -392862156_3 -392862156_2 -392862156_1 -442406711 -442406713_4 -442406713_2 -442406713_3 -442406713_1"/>


	<route id="short_routeWS" edges="376034504 E0 376034499_1 376034499_2 376034498_1 376034498_2 376034498_3"/>
	<route id="short_routeWE" edges="376034504 E0 225946551_5 376034496 216974214_1 -E5 216974214_3 442406712_1 442406712_2 442534392 405036644_1 405036644_4 405036644_3 405036644_2 442534378_1"/> 
	<route id="short_routeWN" edges="376034504 E0 225946551_5 E1 225946551_7 4691810_1 4691810_2 4691810_3 442406701 400517186 216972159 412456386 442406698 401784524"/>

	<route id="short_routeEN" edges="376034497_1 376034497_2 225946551_7 4691810_1 4691810_2 4691810_3 442406701 400517186 216972159 412456386 442406698"/>
	<route id="short_routeEW" edges="376034497_1 376034497_2 225946551_7 225946551_2 376034509 481006163  -481006164 -392862156_5 -392862156_4 -392862156_3 -392862156_2 -392862156_1 -442406711 -442406713_4 -442406713_2 -442406713_3 -442406713_1"/>
	<route id="short_routeES" edges="376034497_1 376034497_2 225946551_7 225946551_2 225946551_3 E0 376034499_1 376034499_2 376034498_1 376034498_2 376034498_3"/>

	<route id="short_routeNW" edges="412456387 400517184_1 400517184_3 400517184_2 442406700 400517185 442406702_1 442406702_2 123456_1 E7 123456_2 E8 123456_3 E4 481006163 -481006164 -392862156_5 -392862156_4  -392862156_3 -392862156_2 -392862156_1 -442406711 -442406713_4 -442406713_2 -442406713_3 -442406713_1"/>
	<route id="short_routeNS" edges="222822932 225946551_3 E0 376034499_1 376034499_2 376034498_1 376034498_2 376034498_3"/>
	<route id="short_routeNE" edges="222822932 225946551_3 E0 225946551_5 376034496 216974214_1 -E5 216974214_3 442406712_1 442406712_2 442534392 405036644_1 405036644_4 405036644_3 405036644_2 442534378_1"/>

	<route id="short_routeSE" edges="376034500_1 376034500_2 376034496 216974214_1 -E5 216974214_3 442406712_1 442406712_2 442534392 405036644_1 405036644_4 405036644_3 405036644_2 442534378_1"/>
	<route id="short_routeSN" edges="376034500_1 376034500_2 E1 225946551_7 4691810_1 4691810_2 4691810_3 442406701 400517186 216972159 412456386 442406698 401784524"/>
	<route id="short_routeSW" edges="376034500_1 376034500_2 E1 225946551_7 225946551_2 376034509 481006163 -481006164 -392862156_5 -392862156_4 -392862156_3 -392862156_2 -392862156_1 -442406711 -442406713_4 -442406713_2 -442406713_3 -442406713_1"/>


<vehicle id="1" type="HV" route="routeEW" color="225,0,0" departSpeed='random' departLane="first" depart="0.0"/>
<vehicle id="2" type="HV" route="short_routeNW" color="225,0,0" departSpeed='random' departLane="first" depart="0.0"/>
<vehicle id="3" type="HV" route="short_routeEW" color="225,0,0" departSpeed='random' departLane="first" depart="0.0"/>
<vehicle id="4" type="HV" route="short_routeSN" color="225,0,0" departSpeed='random' departLane="first" depart="0.0"/>
<vehicle id="5" type="HV" route="short_routeNS" color="225,0,0" departSpeed='random' departLane="first" depart="0.0"/>
</routes>