<?xml version="1.0" encoding="UTF-8"?>

<!-- generated on 2022-11-20 13:55:15 by Eclipse SUMO netedit Version 1.13.0
<configuration xmlns:xsi="http://www.w3.org/2001/XMLSchema-instance" xsi:noNamespaceSchemaLocation="http://sumo.dlr.de/xsd/netconvertConfiguration.xsd">

    <input>
        <sumo-net-file value="C:\Project\Webots\ARsimple_case_full_headway\AnnarborRoundabout\worlds\myMapV5_net\sumo.net.xml"/>
    </input>

    <output>
        <output-file value="C:\Project\Webots\ARsimple_case_full_headway\AnnarborRoundabout\worlds\myMapV5_net\sumo.net.xml"/>
    </output>

    <processing>
        <geometry.min-radius.fix.railways value="false"/>
        <geometry.max-grade.fix value="false"/>
        <offset.disable-normalization value="true"/>
        <lefthand value="false"/>
    </processing>

    <junctions>
        <no-turnarounds value="true"/>
        <junctions.corner-detail value="5"/>
        <junctions.limit-turn-speed value="5.5"/>
        <rectangular-lane-cut value="false"/>
    </junctions>

    <pedestrian>
        <walkingareas value="false"/>
    </pedestrian>

    <report>
        <aggregate-warnings value="5"/>
    </report>

</configuration>
-->

<net version="1.9" junctionCornerDetail="5" limitTurnSpeed="5.50" xmlns:xsi="http://www.w3.org/2001/XMLSchema-instance" xsi:noNamespaceSchemaLocation="http://sumo.dlr.de/xsd/net_file.xsd">

    <location netOffset="710.67,1344.61" convBoundary="84.47,621.86,1559.98,1940.44" origBoundary="-710.67,-1344.61,848.71,1368.22" projParameter="!"/>

    <edge id=":2262910277_0" function="internal">
        <lane id=":2262910277_0_0" index="0" speed="45.00" length="7.98" width="4.00" shape="776.47,953.44 776.39,945.46"/>
    </edge>
    <edge id=":2262910277_1" function="internal">
        <lane id=":2262910277_1_0" index="0" speed="45.00" length="8.01" width="4.00" shape="780.39,945.41 780.47,953.41"/>
    </edge>
    <edge id=":2262910282_0" function="internal">
        <lane id=":2262910282_0_0" index="0" speed="7.48" length="11.97" width="3.50" shape="467.41,1111.70 467.75,1107.88 468.85,1105.14 470.71,1103.47 473.33,1102.89"/>
        <lane id=":2262910282_0_1" index="1" speed="5.59" length="6.10" width="3.50" shape="471.41,1111.67 471.52,1109.37 471.88,1107.73 472.50,1106.73 473.38,1106.39"/>
    </edge>
    <edge id=":2262910282_2" function="internal">
        <lane id=":2262910282_2_0" index="0" speed="35.00" length="11.18" width="3.50" shape="462.31,1101.29 465.60,1101.52 467.82,1102.09 470.04,1102.66 473.33,1102.89"/>
        <lane id=":2262910282_2_1" index="1" speed="35.00" length="11.18" width="3.50" shape="462.36,1104.79 465.64,1105.02 467.87,1105.59 470.09,1106.16 473.38,1106.39"/>
    </edge>
    <edge id=":2262910285_0" function="internal">
        <lane id=":2262910285_0_0" index="0" speed="45.00" length="8.02" width="4.00" shape="782.67,811.24 782.53,819.25"/>
    </edge>
    <edge id=":2262910285_1" function="internal">
        <lane id=":2262910285_1_0" index="0" speed="45.00" length="7.98" width="4.00" shape="778.53,819.17 778.67,811.19"/>
    </edge>
    <edge id=":2262910287_0" function="internal">
        <lane id=":2262910287_0_0" index="0" speed="35.00" length="11.10" width="3.50" shape="493.67,1102.61 505.61,1102.44"/>
        <lane id=":2262910287_0_1" index="1" speed="35.00" length="11.10" width="3.50" shape="494.57,1106.10 504.83,1105.95"/>
    </edge>
    <edge id=":2262910287_2" function="internal">
        <lane id=":2262910287_2_0" index="0" speed="6.25" length="8.03" width="4.00" shape="494.57,1106.10 497.71,1106.19 499.97,1106.58 501.34,1107.25 501.82,1108.21"/>
        <lane id=":2262910287_2_1" index="1" speed="4.87" length="4.45" width="4.00" shape="494.57,1106.10 495.96,1106.22 496.97,1106.64 497.59,1107.34 497.82,1108.34"/>
    </edge>
    <edge id=":2348029734_0" function="internal">
        <lane id=":2348029734_0_0" index="0" speed="10.75" length="11.37" width="4.00" shape="775.06,1139.76 774.73,1136.84 774.56,1134.69 773.85,1132.88 771.89,1130.99"/>
        <lane id=":2348029734_0_1" index="1" speed="12.34" length="11.37" width="4.00" shape="778.99,1139.01 778.43,1135.17 777.96,1132.40 776.76,1130.08 774.03,1127.60"/>
    </edge>
    <edge id=":2348029734_2" function="internal">
        <lane id=":2348029734_2_0" index="0" speed="10.91" length="9.66" width="4.00" shape="781.52,1133.89 778.48,1134.14 776.36,1133.81 774.40,1132.80 771.89,1130.99"/>
        <lane id=":2348029734_2_1" index="1" speed="10.04" length="9.66" width="4.00" shape="781.91,1130.61 779.39,1130.73 777.68,1130.25 776.11,1129.20 774.03,1127.60"/>
    </edge>
    <edge id=":2551264778_0" function="internal">
        <lane id=":2551264778_0_0" index="0" speed="16.31" length="13.14" width="3.50" shape="770.15,1129.72 766.96,1127.53 764.53,1126.40 761.87,1125.86 758.01,1125.48"/>
    </edge>
    <edge id=":2551264778_1" function="internal">
        <lane id=":2551264778_1_0" index="0" speed="13.39" length="15.73" width="4.00" shape="770.15,1129.72 766.61,1126.82 764.66,1124.26 763.60,1121.13 762.73,1116.58"/>
    </edge>
    <edge id=":2551264778_2" function="internal">
        <lane id=":2551264778_2_0" index="0" speed="17.52" length="5.59" width="3.50" shape="772.52,1126.49 768.81,1124.03 767.76,1123.60"/>
    </edge>
    <edge id=":2551264778_3" function="internal">
        <lane id=":2551264778_3_0" index="0" speed="12.06" length="12.66" width="4.00" shape="772.52,1126.49 769.69,1124.15 768.16,1122.07 767.34,1119.53 766.66,1115.85"/>
    </edge>
    <edge id=":2551264778_4" function="internal">
        <lane id=":2551264778_4_0" index="0" speed="17.52" length="9.62" width="3.50" shape="767.76,1123.60 765.95,1122.85 762.83,1122.37 758.34,1121.99"/>
    </edge>
    <edge id=":2551264779_0" function="internal">
        <lane id=":2551264779_0_0" index="0" speed="9.59" length="13.61" width="4.00" shape="759.08,1103.13 762.73,1101.29 765.39,1099.09 767.08,1096.53 767.78,1093.61"/>
    </edge>
    <edge id=":2551264779_1" function="internal">
        <lane id=":2551264779_1_0" index="0" speed="32.50" length="17.81" width="4.00" shape="759.08,1103.13 763.77,1100.68 766.73,1098.39 769.79,1096.42 774.76,1094.94"/>
        <lane id=":2551264779_1_1" index="1" speed="32.50" length="17.81" width="4.00" shape="760.32,1106.41 765.03,1104.04 768.07,1101.93 771.21,1100.14 776.20,1098.75"/>
    </edge>
    <edge id=":2551264779_3" function="internal">
        <lane id=":2551264779_3_0" index="0" speed="32.50" length="16.53" width="4.00" shape="762.86,1109.26 764.76,1104.72 766.19,1101.62 767.18,1098.42 767.78,1093.61"/>
    </edge>
    <edge id=":2551264779_4" function="internal">
        <lane id=":2551264779_4_0" index="0" speed="11.98" length="19.35" width="4.00" shape="762.86,1109.26 765.44,1103.47 768.28,1099.15 771.39,1096.31 774.76,1094.94"/>
    </edge>
    <edge id=":2551264779_5" function="internal">
        <lane id=":2551264779_5_0" index="0" speed="32.50" length="18.33" width="4.00" shape="766.59,1110.69 768.65,1105.64 770.11,1102.17 771.12,1098.60 771.82,1093.24"/>
    </edge>
    <edge id=":2551264779_6" function="internal">
        <lane id=":2551264779_6_0" index="0" speed="10.91" length="15.91" width="4.00" shape="766.59,1110.69 768.73,1105.84 771.05,1102.23 773.53,1099.87 776.20,1098.75"/>
    </edge>
    <edge id=":27254516_0" function="internal">
        <lane id=":27254516_0_0" index="0" speed="35.00" length="2.65" width="3.50" shape="161.92,1119.73 163.93,1121.47"/>
        <lane id=":27254516_0_1" index="1" speed="35.00" length="2.65" width="3.50" shape="161.95,1123.23 163.93,1124.97"/>
    </edge>
    <edge id=":2871530301_0" function="internal">
        <lane id=":2871530301_0_0" index="0" speed="45.00" length="8.00" width="4.00" shape="780.31,1014.57 780.14,1022.56"/>
    </edge>
    <edge id=":2871530301_1" function="internal">
        <lane id=":2871530301_1_0" index="0" speed="45.00" length="7.99" width="4.00" shape="776.14,1022.48 776.31,1014.48"/>
    </edge>
    <edge id=":3793767839_0" function="internal">
        <lane id=":3793767839_0_0" index="0" speed="5.14" length="4.97" width="4.00" shape="901.46,1155.20 899.75,1154.80 898.44,1154.79 897.53,1155.17 897.03,1155.94"/>
    </edge>
    <edge id=":3793767839_1" function="internal">
        <lane id=":3793767839_1_0" index="0" speed="20.00" length="8.24" width="4.00" shape="901.46,1155.20 899.10,1154.52 897.48,1154.10 895.88,1153.58 893.63,1152.64"/>
    </edge>
    <edge id=":3793767839_2" function="internal">
        <lane id=":3793767839_2_0" index="0" speed="25.00" length="7.76" width="4.00" shape="895.27,1149.00 897.39,1149.88 898.90,1150.35 900.43,1150.75 902.64,1151.38"/>
    </edge>
    <edge id=":3793767839_3" function="internal">
        <lane id=":3793767839_3_0" index="0" speed="6.48" length="2.71" width="4.00" shape="895.27,1149.00 896.68,1150.01 897.12,1150.89"/>
    </edge>
    <edge id=":3793767839_4" function="internal">
        <lane id=":3793767839_4_0" index="0" speed="6.48" length="5.19" width="4.00" shape="897.12,1150.89 897.44,1151.51 897.55,1153.48 897.03,1155.94"/>
    </edge>
    <edge id=":3793767845_0" function="internal">
        <lane id=":3793767845_0_0" index="0" speed="27.99" length="13.70" width="4.00" shape="877.71,1145.47 874.62,1144.48 871.78,1144.26 868.51,1144.34 864.18,1144.26"/>
    </edge>
    <edge id=":3793767845_1" function="internal">
        <lane id=":3793767845_1_0" index="0" speed="15.00" length="13.70" width="4.00" shape="869.27,1132.66 872.27,1135.79 874.43,1138.23 876.53,1140.18 879.33,1141.82"/>
    </edge>
    <edge id=":3793767845_2" function="internal">
        <lane id=":3793767845_2_0" index="0" speed="5.31" length="9.01" width="4.00" shape="866.50,1135.55 868.41,1137.80 868.70,1139.33 867.38,1140.15 864.43,1140.27"/>
    </edge>
    <edge id=":3793767848_0" function="internal">
        <lane id=":3793767848_0_0" index="0" speed="5.07" length="4.93" width="4.00" shape="839.68,1135.33 838.07,1134.73 836.79,1134.58 835.87,1134.89 835.28,1135.64"/>
    </edge>
    <edge id=":3793767848_1" function="internal">
        <lane id=":3793767848_1_0" index="0" speed="50.00" length="7.99" width="4.00" shape="839.68,1135.33 832.43,1132.26"/>
        <lane id=":3793767848_1_1" index="1" speed="50.00" length="7.99" width="4.00" shape="841.35,1131.70 833.88,1128.53"/>
    </edge>
    <edge id=":3793767850_0" function="internal">
        <lane id=":3793767850_0_0" index="0" speed="13.89" length="7.98" width="4.00" shape="833.42,1223.47 831.06,1223.54 829.44,1223.70 827.85,1224.03 825.57,1224.66"/>
    </edge>
    <edge id=":3793767850_1" function="internal">
        <lane id=":3793767850_1_0" index="0" speed="6.46" length="1.97" width="4.00" shape="829.37,1219.57 829.15,1221.39 829.09,1221.51"/>
    </edge>
    <edge id=":3793767850_2" function="internal">
        <lane id=":3793767850_2_0" index="0" speed="6.46" length="4.93" width="4.00" shape="829.09,1221.51 828.44,1222.84 827.25,1223.93 825.57,1224.66"/>
    </edge>
    <edge id=":3793767853_0" function="internal">
        <lane id=":3793767853_0_0" index="0" speed="13.89" length="7.99" width="4.00" shape="828.99,1162.52 828.82,1170.51"/>
    </edge>
    <edge id=":3793767853_1" function="internal">
        <lane id=":3793767853_1_0" index="0" speed="5.87" length="6.56" width="4.00" shape="828.99,1162.52 828.64,1164.27 827.83,1165.52 826.54,1166.28 824.77,1166.55"/>
    </edge>
    <edge id=":3793772757_0" function="internal">
        <lane id=":3793772757_0_0" index="0" speed="13.89" length="7.99" width="4.00" shape="815.73,1224.83 807.75,1224.40"/>
    </edge>
    <edge id=":3793772757_1" function="internal">
        <lane id=":3793772757_1_0" index="0" speed="5.56" length="1.97" width="4.00" shape="811.68,1220.58 811.46,1222.31 811.35,1222.50"/>
    </edge>
    <edge id=":3793772757_2" function="internal">
        <lane id=":3793772757_2_0" index="0" speed="5.56" length="4.37" width="4.00" shape="811.35,1222.50 810.73,1223.53 809.49,1224.23 807.75,1224.40"/>
    </edge>
    <edge id=":3793772770_0" function="internal">
        <lane id=":3793772770_0_0" index="0" speed="8.02" length="12.46" width="4.00" shape="801.92,1129.43 798.69,1129.84 796.20,1131.22 794.46,1133.55 793.46,1136.85"/>
    </edge>
    <edge id=":3793772770_1" function="internal">
        <lane id=":3793772770_1_0" index="0" speed="50.00" length="16.93" shape="801.92,1129.43 797.13,1129.82 793.95,1130.90 790.79,1132.22 786.04,1133.30"/>
        <lane id=":3793772770_1_1" index="1" speed="50.00" length="16.93" shape="802.41,1125.43 797.38,1125.94 794.08,1127.28 790.79,1128.87 785.80,1130.10"/>
    </edge>
    <edge id=":3793772770_3" function="internal">
        <lane id=":3793772770_3_0" index="0" speed="50.00" length="16.43" width="4.00" shape="800.81,1122.34 798.85,1126.76 796.74,1129.50 794.83,1132.29 793.46,1136.85"/>
    </edge>
    <edge id=":3793772770_4" function="internal">
        <lane id=":3793772770_4_0" index="0" speed="11.29" length="19.50" shape="800.81,1122.34 798.81,1126.54 795.68,1129.77 791.43,1132.02 786.04,1133.30"/>
    </edge>
    <edge id=":3793772770_5" function="internal">
        <lane id=":3793772770_5_0" index="0" speed="50.00" length="8.66" width="4.00" shape="796.99,1121.17 794.98,1125.74 792.84,1128.59 792.78,1128.68"/>
    </edge>
    <edge id=":3793772770_6" function="internal">
        <lane id=":3793772770_6_0" index="0" speed="10.02" length="15.19" shape="796.99,1121.17 795.40,1124.64 793.00,1127.28 789.81,1129.10 785.80,1130.10"/>
    </edge>
    <edge id=":3793772770_7" function="internal">
        <lane id=":3793772770_7_0" index="0" speed="50.00" length="8.29" width="4.00" shape="792.78,1128.68 790.91,1131.48 789.51,1136.20"/>
    </edge>
    <edge id=":3793772784_0" function="internal">
        <lane id=":3793772784_0_0" index="0" speed="32.50" length="13.13" width="4.00" shape="788.82,1181.57 787.67,1185.19 785.84,1187.54 784.13,1189.68 783.37,1192.66"/>
        <lane id=":3793772784_0_1" index="1" speed="32.50" length="13.13" width="4.00" shape="785.07,1179.11 784.48,1183.39 783.94,1186.55 783.54,1189.39 783.37,1192.66"/>
    </edge>
    <edge id=":3793772784_2" function="internal">
        <lane id=":3793772784_2_0" index="0" speed="32.50" length="13.47" width="4.00" shape="779.37,1192.64 779.24,1189.38 778.83,1186.60 778.11,1183.53 777.08,1179.41"/>
    </edge>
    <edge id=":3793772786_0" function="internal">
        <lane id=":3793772786_0_0" index="0" speed="4.44" length="4.30" width="4.00" shape="775.26,1158.50 776.32,1158.65 777.06,1158.28 777.49,1157.39 777.60,1155.97"/>
    </edge>
    <edge id=":3793772786_1" function="internal">
        <lane id=":3793772786_1_0" index="0" speed="50.00" length="7.99" width="4.00" shape="777.26,1163.82 777.60,1155.97"/>
        <lane id=":3793772786_1_1" index="1" speed="50.00" length="7.99" width="4.00" shape="781.25,1163.99 781.60,1155.86"/>
    </edge>
    <edge id=":3793772789_0" function="internal">
        <lane id=":3793772789_0_0" index="0" speed="5.03" length="4.86" width="4.00" shape="785.30,1223.40 784.40,1223.60 783.76,1224.31 783.37,1225.52 783.24,1227.23"/>
    </edge>
    <edge id=":3793772789_1" function="internal">
        <lane id=":3793772789_1_0" index="0" speed="5.98" length="6.98" shape="785.30,1223.40 782.83,1223.12 781.07,1222.53 780.01,1221.63 779.66,1220.43"/>
    </edge>
    <edge id=":3793772789_2" function="internal">
        <lane id=":3793772789_2_0" index="0" speed="30.00" length="6.79" width="4.00" shape="782.86,1220.44 783.24,1227.23"/>
    </edge>
    <edge id=":3793772789_3" function="internal">
        <lane id=":3793772789_3_0" index="0" speed="29.45" length="6.80" shape="779.24,1227.21 779.66,1220.43"/>
    </edge>
    <edge id=":3793772797_0" function="internal">
        <lane id=":3793772797_0_0" index="0" speed="9.85" length="7.74" width="4.00" shape="765.33,1068.04 767.06,1066.49 768.37,1065.40 769.24,1064.13 769.61,1061.99"/>
    </edge>
    <edge id=":3793772797_1" function="internal">
        <lane id=":3793772797_1_0" index="0" speed="15.00" length="7.94" width="4.00" shape="769.22,1069.91 769.61,1061.99"/>
        <lane id=":3793772797_1_1" index="1" speed="15.00" length="7.94" width="4.00" shape="773.21,1070.12 773.61,1062.17"/>
    </edge>
    <edge id=":3793772805_0" function="internal">
        <lane id=":3793772805_0_0" index="0" speed="15.00" length="6.80" shape="783.29,1213.46 782.87,1220.24"/>
    </edge>
    <edge id=":3793772805_1" function="internal">
        <lane id=":3793772805_1_0" index="0" speed="14.45" length="6.80" width="4.00" shape="779.67,1220.23 779.29,1213.44"/>
    </edge>
    <edge id=":3793772848_0" function="internal">
        <lane id=":3793772848_0_0" index="0" speed="5.47" length="5.38" width="3.50" shape="712.82,1123.80 712.52,1122.80 711.72,1122.06 710.40,1121.56 708.58,1121.32"/>
    </edge>
    <edge id=":3793772848_1" function="internal">
        <lane id=":3793772848_1_0" index="0" speed="32.50" length="8.00" width="3.50" shape="716.56,1121.77 708.58,1121.32"/>
        <lane id=":3793772848_1_1" index="1" speed="32.50" length="8.00" width="3.50" shape="716.76,1118.28 708.77,1117.83"/>
    </edge>
    <edge id=":3793772957_0" function="internal">
        <lane id=":3793772957_0_0" index="0" speed="15.00" length="0.30" width="3.50" shape="694.42,1101.94 694.72,1101.97"/>
        <lane id=":3793772957_0_1" index="1" speed="15.00" length="0.30" width="3.50" shape="694.08,1105.42 694.38,1105.45"/>
    </edge>
    <edge id=":3793772962_0" function="internal">
        <lane id=":3793772962_0_0" index="0" speed="25.00" length="8.22" width="3.50" shape="670.34,1099.79 672.76,1099.87 674.43,1099.75 676.08,1099.48 678.50,1099.13"/>
    </edge>
    <edge id=":3793772962_1" function="internal">
        <lane id=":3793772962_1_0" index="0" speed="25.00" length="8.00" width="3.50" shape="670.34,1099.79 678.38,1100.36"/>
        <lane id=":3793772962_1_1" index="1" speed="25.00" length="8.00" width="3.50" shape="670.11,1103.28 678.03,1103.84"/>
    </edge>
    <edge id=":3889417338_0" function="internal">
        <lane id=":3889417338_0_0" index="0" speed="4.08" length="5.84" width="4.00" shape="785.33,1936.41 784.35,1937.93 783.36,1938.44 782.35,1937.96 781.33,1936.47"/>
    </edge>
    <edge id=":4029859983_0" function="internal">
        <lane id=":4029859983_0_0" index="0" speed="45.00" length="8.33" width="4.00" shape="781.84,850.01 782.10,852.43 782.74,854.03 783.39,855.64 783.64,858.06"/>
    </edge>
    <edge id=":4029859983_1" function="internal">
        <lane id=":4029859983_1_0" index="0" speed="45.00" length="8.32" width="4.00" shape="775.64,857.85 776.02,855.45 776.75,853.88 777.47,852.31 777.84,849.92"/>
    </edge>
    <edge id=":4029859984_0" function="internal">
        <lane id=":4029859984_0_0" index="0" speed="45.00" length="8.02" width="4.00" shape="776.32,940.42 776.26,932.40"/>
    </edge>
    <edge id=":4029859984_1" function="internal">
        <lane id=":4029859984_1_0" index="0" speed="45.00" length="7.97" width="4.00" shape="780.26,932.39 780.32,940.36"/>
    </edge>
    <edge id=":4029860918_0" function="internal">
        <lane id=":4029860918_0_0" index="0" speed="35.00" length="8.00" width="3.50" shape="554.21,1101.45 562.21,1101.25"/>
        <lane id=":4029860918_0_1" index="1" speed="35.00" length="8.00" width="3.50" shape="554.30,1104.95 562.30,1104.75"/>
    </edge>
    <edge id=":4029860959_0" function="internal">
        <lane id=":4029860959_0_0" index="0" speed="35.00" length="11.00" width="3.50" shape="384.34,1109.71 395.28,1108.54"/>
        <lane id=":4029860959_0_1" index="1" speed="35.00" length="11.00" width="3.50" shape="384.71,1113.19 395.65,1112.02"/>
    </edge>
    <edge id=":4029860969_0" function="internal">
        <lane id=":4029860969_0_0" index="0" speed="35.00" length="11.00" width="3.50" shape="356.04,1112.74 366.98,1111.57"/>
        <lane id=":4029860969_0_1" index="1" speed="35.00" length="11.00" width="3.50" shape="356.41,1116.22 367.35,1115.05"/>
    </edge>
    <edge id=":4058370158_0" function="internal">
        <lane id=":4058370158_0_0" index="0" speed="45.00" length="8.00" width="4.00" shape="783.39,754.52 783.29,762.51"/>
    </edge>
    <edge id=":4058370158_1" function="internal">
        <lane id=":4058370158_1_0" index="0" speed="45.00" length="8.00" width="4.00" shape="779.29,762.46 779.39,754.47"/>
    </edge>
    <edge id=":4060125217_0" function="internal">
        <lane id=":4060125217_0_0" index="0" speed="45.00" length="7.96" width="4.00" shape="780.76,1726.17 780.67,1718.22"/>
    </edge>
    <edge id=":4060125217_1" function="internal">
        <lane id=":4060125217_1_0" index="0" speed="4.08" length="1.98" width="4.00" shape="780.76,1726.17 781.76,1724.67 781.92,1724.59"/>
    </edge>
    <edge id=":4060125217_4" function="internal">
        <lane id=":4060125217_4_0" index="0" speed="4.08" length="3.86" width="4.00" shape="781.92,1724.59 782.75,1724.17 783.76,1724.67 784.76,1726.16"/>
    </edge>
    <edge id=":4060125217_2" function="internal">
        <lane id=":4060125217_2_0" index="0" speed="45.00" length="8.04" width="4.00" shape="784.67,1718.12 784.76,1726.16"/>
    </edge>
    <edge id=":4060125217_3" function="internal">
        <lane id=":4060125217_3_0" index="0" speed="4.08" length="2.01" width="4.00" shape="784.67,1718.12 783.70,1719.65 783.52,1719.74"/>
    </edge>
    <edge id=":4060125217_5" function="internal">
        <lane id=":4060125217_5_0" index="0" speed="4.08" length="3.84" width="4.00" shape="783.52,1719.74 782.72,1720.17 781.70,1719.69 780.67,1718.22"/>
    </edge>
    <edge id=":4060125218_0" function="internal">
        <lane id=":4060125218_0_0" index="0" speed="45.00" length="8.00" width="4.00" shape="780.90,1786.03 780.89,1778.04"/>
    </edge>
    <edge id=":4060125218_1" function="internal">
        <lane id=":4060125218_1_0" index="0" speed="4.08" length="1.99" width="4.00" shape="780.90,1786.03 781.90,1784.53 782.07,1784.45"/>
    </edge>
    <edge id=":4060125218_4" function="internal">
        <lane id=":4060125218_4_0" index="0" speed="4.08" length="3.85" width="4.00" shape="782.07,1784.45 782.90,1784.03 783.90,1784.53 784.90,1786.03"/>
    </edge>
    <edge id=":4060125218_2" function="internal">
        <lane id=":4060125218_2_0" index="0" speed="45.00" length="8.00" width="4.00" shape="784.89,1778.03 784.90,1786.03"/>
    </edge>
    <edge id=":4060125218_3" function="internal">
        <lane id=":4060125218_3_0" index="0" speed="4.08" length="1.99" width="4.00" shape="784.89,1778.03 783.89,1779.53 783.72,1779.61"/>
    </edge>
    <edge id=":4060125218_5" function="internal">
        <lane id=":4060125218_5_0" index="0" speed="4.08" length="3.85" width="4.00" shape="783.72,1779.61 782.90,1780.03 781.89,1779.53 780.89,1778.04"/>
    </edge>
    <edge id=":4060125219_0" function="internal">
        <lane id=":4060125219_0_0" index="0" speed="45.00" length="8.01" width="4.00" shape="785.09,1866.28 785.08,1874.29"/>
    </edge>
    <edge id=":4060125219_1" function="internal">
        <lane id=":4060125219_1_0" index="0" speed="4.08" length="2.00" width="4.00" shape="785.09,1866.28 784.09,1867.78 783.92,1867.86"/>
    </edge>
    <edge id=":4060125219_4" function="internal">
        <lane id=":4060125219_4_0" index="0" speed="4.08" length="3.84" width="4.00" shape="783.92,1867.86 783.09,1868.28 782.09,1867.78 781.09,1866.28"/>
    </edge>
    <edge id=":4060125219_2" function="internal">
        <lane id=":4060125219_2_0" index="0" speed="45.00" length="7.98" width="4.00" shape="781.08,1874.27 781.09,1866.28"/>
    </edge>
    <edge id=":4060125219_3" function="internal">
        <lane id=":4060125219_3_0" index="0" speed="4.08" length="1.99" width="4.00" shape="781.08,1874.27 782.09,1872.77 782.25,1872.69"/>
    </edge>
    <edge id=":4060125219_5" function="internal">
        <lane id=":4060125219_5_0" index="0" speed="4.08" length="3.85" width="4.00" shape="782.25,1872.69 783.09,1872.28 784.09,1872.78 785.08,1874.29"/>
    </edge>
    <edge id=":4064502341_0" function="internal">
        <lane id=":4064502341_0_0" index="0" speed="45.00" length="7.99" width="4.00" shape="778.22,1542.91 778.11,1534.91"/>
    </edge>
    <edge id=":4064502341_1" function="internal">
        <lane id=":4064502341_1_0" index="0" speed="4.08" length="1.99" width="4.00" shape="778.22,1542.91 779.20,1541.39 779.37,1541.31"/>
    </edge>
    <edge id=":4064502341_4" function="internal">
        <lane id=":4064502341_4_0" index="0" speed="4.08" length="3.85" width="4.00" shape="779.37,1541.31 780.19,1540.88 781.20,1541.37 782.22,1542.85"/>
    </edge>
    <edge id=":4064502341_2" function="internal">
        <lane id=":4064502341_2_0" index="0" speed="45.00" length="7.99" width="4.00" shape="782.11,1534.87 782.22,1542.85"/>
    </edge>
    <edge id=":4064502341_3" function="internal">
        <lane id=":4064502341_3_0" index="0" speed="4.08" length="1.99" width="4.00" shape="782.11,1534.87 781.13,1536.38 780.96,1536.46"/>
    </edge>
    <edge id=":4064502341_5" function="internal">
        <lane id=":4064502341_5_0" index="0" speed="4.08" length="3.85" width="4.00" shape="780.96,1536.46 780.13,1536.89 779.13,1536.40 778.11,1534.91"/>
    </edge>
    <edge id=":4072635682_0" function="internal">
        <lane id=":4072635682_0_0" index="0" speed="45.00" length="7.98" width="4.00" shape="776.61,973.55 776.57,965.56"/>
    </edge>
    <edge id=":4072635682_1" function="internal">
        <lane id=":4072635682_1_0" index="0" speed="45.00" length="8.01" width="4.00" shape="780.57,965.53 780.61,973.53"/>
    </edge>
    <edge id=":4072635683_0" function="internal">
        <lane id=":4072635683_0_0" index="0" speed="45.00" length="8.01" width="4.00" shape="780.64,983.39 780.63,991.39"/>
    </edge>
    <edge id=":4072635683_1" function="internal">
        <lane id=":4072635683_1_0" index="0" speed="45.00" length="7.98" width="4.00" shape="776.63,991.38 776.64,983.40"/>
    </edge>
    <edge id=":4076673753_0" function="internal">
        <lane id=":4076673753_0_0" index="0" speed="15.00" length="7.99" width="4.00" shape="832.00,1114.43 839.22,1117.72"/>
        <lane id=":4076673753_0_1" index="1" speed="15.00" length="7.99" width="4.00" shape="830.29,1118.05 837.62,1121.39"/>
    </edge>
    <edge id=":4138775389_0" function="internal">
        <lane id=":4138775389_0_0" index="0" speed="5.89" length="6.75" width="3.50" shape="200.30,1126.70 200.68,1125.95 201.83,1125.38 203.74,1125.00 206.42,1124.80"/>
    </edge>
    <edge id=":4138775389_1" function="internal">
        <lane id=":4138775389_1_0" index="0" speed="35.00" length="8.06" width="3.50" shape="198.29,1121.45 206.29,1121.30"/>
        <lane id=":4138775389_1_1" index="1" speed="35.00" length="8.06" width="3.50" shape="198.29,1124.95 206.42,1124.80"/>
    </edge>
    <edge id=":4138775389_3" function="internal">
        <lane id=":4138775389_3_0" index="0" speed="5.71" length="6.61" width="4.00" shape="198.29,1124.95 200.92,1125.06 202.80,1125.37 203.92,1125.90 204.30,1126.63"/>
    </edge>
    <edge id=":4138779825_0" function="internal">
        <lane id=":4138779825_0_0" index="0" speed="35.00" length="8.25" width="3.50" shape="286.67,1132.95 284.27,1132.69 282.66,1132.13 281.06,1131.58 278.67,1131.38"/>
        <lane id=":4138779825_0_1" index="1" speed="35.00" length="8.25" width="3.50" shape="286.66,1129.45 284.24,1129.19 282.62,1128.63 281.00,1128.08 278.58,1127.88"/>
    </edge>
    <edge id=":4138779825_2" function="internal">
        <lane id=":4138779825_2_0" index="0" speed="5.03" length="4.75" width="3.50" shape="282.50,1126.03 282.28,1126.81 281.55,1127.37 280.32,1127.73 278.58,1127.88"/>
    </edge>
    <edge id=":4138779826_0" function="internal">
        <lane id=":4138779826_0_0" index="0" speed="35.00" length="8.00" width="3.50" shape="278.29,1118.19 286.29,1118.11"/>
        <lane id=":4138779826_0_1" index="1" speed="35.00" length="8.00" width="3.50" shape="278.32,1121.69 286.32,1121.61"/>
    </edge>
    <edge id=":4400928082_0" function="internal">
        <lane id=":4400928082_0_0" index="0" speed="45.00" length="0.10" width="4.00" shape="783.18,1243.04 783.18,1243.04"/>
    </edge>
    <edge id=":4400928082_1" function="internal">
        <lane id=":4400928082_1_0" index="0" speed="45.00" length="0.10" width="4.00" shape="779.18,1243.02 779.18,1243.02"/>
    </edge>
    <edge id=":4400928300_0" function="internal">
        <lane id=":4400928300_0_0" index="0" speed="35.00" length="2.66" width="3.50" shape="540.71,1133.12 538.69,1134.93"/>
        <lane id=":4400928300_0_1" index="1" speed="35.00" length="2.66" width="3.50" shape="540.71,1133.12 538.63,1131.43"/>
        <lane id=":4400928300_0_2" index="2" speed="35.00" length="2.66" width="3.50" shape="540.56,1129.62 538.58,1127.93"/>
    </edge>
    <edge id=":4400928302_0" function="internal">
        <lane id=":4400928302_0_0" index="0" speed="35.00" length="2.66" width="3.50" shape="411.71,1106.97 413.55,1105.05"/>
        <lane id=":4400928302_0_1" index="1" speed="35.00" length="2.66" width="3.50" shape="411.71,1106.97 413.86,1108.53"/>
        <lane id=":4400928302_0_2" index="2" speed="35.00" length="2.66" width="3.50" shape="412.02,1110.46 414.17,1112.02"/>
    </edge>
    <edge id=":4400928304_0" function="internal">
        <lane id=":4400928304_0_0" index="0" speed="35.00" length="8.26" width="3.50" shape="235.77,1132.39 233.38,1132.72 231.79,1133.36 230.21,1134.00 227.81,1134.33"/>